RUNSPEC

RUNCTRL
MAXLINIT 400
 /

METRIC

DIMENS
117 157 86 /

EQLDIMS
1
/

OIL
WATER

--CVI.3=[1:80]
--CT=[82:86]

WELLDIMS
-- MaxWells  MaxCompl  MaxGroups   MaxWellsPerGroup   MaxSeparatorStages
     200        200        50             20             /
TABDIMS
--   1       2      3       4      5      6      7
-- NTSFUN  NTPVT  NSSFUN  NPPVT  NTFIP  NRPVT  unused  NTENDP
     3      1      1*     1*     2*     1*     /
REGDIMS
--    1      2       3       4        5          6           7
--  NTFIP  NMFIPR  NRFREG  NTFREG  maxTRACK  maxCOALNUM  maxOPERNUM
      2     1       1*      1*       1*         1*          1*   /
FAULTDIM
100000 /

ENDSCALE
/

START
 01 'FEB' 1992 /
/

GRID

NEWTRAN

INCLUDE
'GEOL_2013_05_15/grid.ecl' / -- grid

INCLUDE
'GEOL_2013_05_15/ntg14.ecl' / -- NTG from 15.05.2013 corrected with clay layers

INCLUDE
'GEOL_2013_05_15/poro.ecl' / -- from 15.05.2013 updated by El'za

INCLUDE
'GEOL_2013_05_15/ARRHUU.ecl' /

INCLUDE
'GEOL_2013_05_15/ARRMULTX0518_2.inc' /
-- 144 0.5
-- 368 0.5
-- 302 0.5


--INCLUDE
--'GEOL_NEW/CLAY.ecl' /

NOECHO

ARITHMETIC
MULTPV=1 
MULTPV(1:1,,) = 9E04
PERMX = 20.10*EXP(0.1537*PORO*100) 
PERMZ = 0.4*PERMX
PERMZ = ARRMULTX * PERMZ 
NTG(51:59,75:81,1:80) = (ARRHUU!=100)*NTG+0*(ARRHUU==100)
NTG(,,81:86)=0 
PERMX = 0*(NTG==0) + (NTG==1) * PERMX
PERMZ = 0*(NTG==0) + (NTG==1) * PERMZ
/

COPY
PERMX PERMY /
/

MINPV
2
/

PROPS

DENSITY
885	1180.00 1.1
/

PVTW
170 1 4.5e-5 1.1 0
 /

PVCDO
170	1.160	7.0e-5	5.17	1.784e-3
/


SCALECRS
YES
/

--INCLUDE
--'GEOL_2013_05_15/SWATINIT.ecl' /

SWOF
0.20000	0.00000	1.00000	1.00000	--	KRO	1.00
0.22450	0.00240	0.73509	0.82386	--	KRW	0.048
0.24900	0.00480	0.53144	0.69840	--	SWC	0.2
0.27350	0.00720	0.37715	0.60473	--	SWOCR	0.31
0.29800	0.00960	0.26214	0.53227	--	Pc(max)	0.735572734
0.32250	0.01200	0.17798	0.47463	--	PC_curve	
0.34700	0.01440	0.11765	0.42775	--	no	6
0.37150	0.01680	0.07542	0.38891	--	nw	1
0.39600	0.01920	0.04666	0.35624			
0.42050	0.02160	0.02768	0.32839			
0.44500	0.02400	0.01562	0.30439			
0.46950	0.02640	0.00830	0.28350			
0.49400	0.02880	0.00410	0.26517			
0.51850	0.03120	0.00184	0.24895			
0.54300	0.03360	0.00073	0.23451			
0.56750	0.03600	0.00024	0.22158			
0.59200	0.03840	0.00006	0.20993			
0.61650	0.04080	0.00001	0.19938			
0.64100	0.04320	0.00000	0.18980			
0.66550	0.04560	0.00000	0.18105			
0.69000	0.04800	0.00000	0.17303			
0.73429	0.18400	0.00000	0.16012			
0.77857	0.32000	0.00000	0.14892			
0.82286	0.45600	0.00000	0.13911			
0.86714	0.59200	0.00000	0.13046			
0.91143	0.72800	0.00000	0.12277			
0.95571	0.86400	0.00000	0.11589			
1.00000	1.00000	0.00000	0.00000	
 /
0.20000	0.00000	1.00000	1.00000	--	KRO	1.00
0.22450	0.00240	0.73509	0.82386	--	KRW	0.048
0.24900	0.00480	0.53144	0.69840	--	SWC	0.2
0.27350	0.00720	0.37715	0.60473	--	SWOCR	0.31
0.29800	0.00960	0.26214	0.53227	--	Pc(max)	0.735572734
0.32250	0.01200	0.17798	0.47463	--	PC_curve	
0.34700	0.01440	0.11765	0.42775	--	no	6
0.37150	0.01680	0.07542	0.38891	--	nw	1
0.39600	0.01920	0.04666	0.35624			
0.42050	0.02160	0.02768	0.32839			
0.44500	0.02400	0.01562	0.30439			
0.46950	0.02640	0.00830	0.28350			
0.49400	0.02880	0.00410	0.26517			
0.51850	0.03120	0.00184	0.24895			
0.54300	0.03360	0.00073	0.23451			
0.56750	0.03600	0.00024	0.22158			
0.59200	0.03840	0.00006	0.20993			
0.61650	0.04080	0.00001	0.19938			
0.64100	0.04320	0.00000	0.18980			
0.66550	0.04560	0.00000	0.18105			
0.69000	0.04800	0.00000	0.17303			
0.73429	0.18400	0.00000	0.16012			
0.77857	0.32000	0.00000	0.14892			
0.82286	0.45600	0.00000	0.13911			
0.86714	0.59200	0.00000	0.13046			
0.91143	0.72800	0.00000	0.12277			
0.95571	0.86400	0.00000	0.11589			
1.00000	1.00000	0.00000	0.00000	
 /
0.20000	0.00000	1.00000	1.00000	--	KRO	1.00
0.22450	0.00240	0.73509	0.82386	--	KRW	0.048
0.24900	0.00480	0.53144	0.69840	--	SWC	0.2
0.27350	0.00720	0.37715	0.60473	--	SWOCR	0.31
0.29800	0.00960	0.26214	0.53227	--	Pc(max)	0.735572734
0.32250	0.01200	0.17798	0.47463	--	PC_curve	
0.34700	0.01440	0.11765	0.42775	--	no	6
0.37150	0.01680	0.07542	0.38891	--	nw	1
0.39600	0.01920	0.04666	0.35624			
0.42050	0.02160	0.02768	0.32839			
0.44500	0.02400	0.01562	0.30439			
0.46950	0.02640	0.00830	0.28350			
0.49400	0.02880	0.00410	0.26517			
0.51850	0.03120	0.00184	0.24895			
0.54300	0.03360	0.00073	0.23451			
0.56750	0.03600	0.00024	0.22158			
0.59200	0.03840	0.00006	0.20993			
0.61650	0.04080	0.00001	0.19938			
0.64100	0.04320	0.00000	0.18980			
0.66550	0.04560	0.00000	0.18105			
0.69000	0.04800	0.00000	0.17303			
0.73429	0.18400	0.00000	0.16012			
0.77857	0.32000	0.00000	0.14892			
0.82286	0.45600	0.00000	0.13911			
0.86714	0.59200	0.00000	0.13046			
0.91143	0.72800	0.00000	0.12277			
0.95571	0.86400	0.00000	0.11589			
1.00000	1.00000	0.00000	0.00000	
 /

INCLUDE
'GEOL_2013_05_15/ARRFAC_0510.ecl' /

ARITHMETIC
--SWATINIT=SWATINIT
--SWATINIT(,,82:86)=1 
SWL = 1.0635*EXP(-9.7*PORO)
SWL = (ARRFAC==1)*SWL*1+(ARRFAC==2)*SWL*1 +(ARRFAC==3)*SWL*1 
--SOWCR =(SWATINIT != 1)*((1-(0.6975+0.0676*LOG(PERMX/1000)))*(1-SWATINIT)) + (SWATINIT==1)*(0.01*(-5.299*LOG(permx/1000) + 25.101))
KRWR = (ARRFAC==1)*0.2+(ARRFAC==2)*0.08+(ARRFAC==3)*0.15 -- было 0,3 * 0,048 * 0,2
--KRWR = ARRKR001 * KRWR 
--SWL=ARRSW001*SWL 
--SWL = SWL*(SWATINIT >= SWL) + SWATINIT*(SWATINIT < SWL)
--KRWR = KRWR *ARRKR004 
PCW=0.735572734*28*0.318316*((poro/permx)^0.5) 
PCW=2.5*PCW 
SOWCR =((1-(0.6975+0.0676*LOG(PERMX/1000)))*(1-SWL)) 
 /

COPY
 SWL SWCR /
/

ROCK
170 5E-5 /

REGIONS

INCLUDE
'GEOL_2013_05_15/SATNUM.ecl' /

ARITHMETIC
pvtnum=1 
satnum=SATNUM*(SATNUM!=0)+1*(SATNUM==0) 
eqlnum=pvtnum 
fipnum=pvtnum 
fipnum(,,82:86)=2 
/

SOLUTION

EQUIL
     1688.4   170   1688.4    1*     1*    1*    1	1	5	1*   /
/

SUMMARY

RECU

Delt 1 month
Rate 1 month EXACT FIELD WELL end
Freq 1  1  1


Array EQUA year end
1/
GENE rest

EFOR WELL 'DD.MM.YYYY' MDL MDU RAD SKIN MULT

EUNI METRes METRes /

HFOR WELL 'DD.MM.YYYY' QOIL QWAT QWIN WEFA THP BHP

HUNI
sm3/day sm3/day ksm3 ksm3 bara /

INCLUDE 
  'GEOL_2013_05_15\Wells\Well.dat' /
INCLUDE 
  'INCL\PERF_it6.INC' /
INCLUDE 
  'INCL\event_it2.inc' /
INCLUDE 
  'INCL\hist.inc' /

READ 1 MAR 2013 /

STOP
